A71EV2A-x0387_A_151_A71EV2A-x0501+A+152+1
     RDKit          3D

 15 15  0  0  0  0  0  0  0  0999 V2000
   32.2580   13.4250    4.5540 O   0  0  0  0  0  0  0  0  0  0  0  0
   33.3740   13.3950    5.0570 C   0  0  0  0  0  0  0  0  0  0  0  0
   34.3840   14.4860    4.7620 C   0  0  0  0  0  0  0  0  0  0  0  0
   34.5180   14.7410    3.3710 O   0  0  0  0  0  0  0  0  0  0  0  0
   33.3030   15.0370    2.6980 C   0  0  0  0  0  0  0  0  0  0  0  0
   33.7700   12.4520    5.9290 N   0  0  0  0  0  0  0  0  0  0  0  0
   32.9150   11.4210    6.4210 C   0  0  0  0  0  0  0  0  0  0  0  0
   31.8300   11.7610    7.2390 C   0  0  0  0  0  0  0  0  0  0  0  0
   31.4620   13.1920    7.5450 C   0  0  0  0  0  0  0  0  0  0  0  0
   31.1270   10.7340    7.8570 C   0  0  0  0  0  0  0  0  0  0  0  0
   31.4790    9.4030    7.7060 C   0  0  0  0  0  0  0  0  0  0  0  0
   30.7590    8.3250    8.4770 C   0  0  0  0  0  0  0  0  0  0  0  0
   32.5450    9.0990    6.8690 C   0  0  0  0  0  0  0  0  0  0  0  0
   33.2680   10.0850    6.2010 C   0  0  0  0  0  0  0  0  0  0  0  0
   34.4020    9.6960    5.2900 C   0  0  0  0  0  0  0  0  0  0  0  0
  5  4  1  0
  4  3  1  0
  3  2  1  0
  2  1  2  0
  6  2  1  0
  7  6  1  0
  7 14  2  0
 15 14  1  0
 14 13  1  0
 13 11  2  0
 12 11  1  0
 11 10  1  0
 10  8  2  0
  8  7  1  0
  9  8  1  0
M  END
