A71EV2A-x0351_A_302_A71EV2A-x0528+A+201+1
     RDKit          3D

 16 17  0  0  0  0  0  0  0  0999 V2000
   25.7010   19.5390   24.6950 O   0  0  0  0  0  0  0  0  0  0  0  0
   25.3950   18.3710   23.9210 S   0  0  0  0  0  0  0  0  0  0  0  0
   26.2870   17.2490   23.9620 O   0  0  0  0  0  0  0  0  0  0  0  0
   23.7670   17.8260   24.3880 C   0  0  0  0  0  0  0  0  0  0  0  0
   23.0720   17.0720   23.2810 C   0  0  0  0  0  0  0  0  0  0  0  0
   25.3170   18.8510   22.3550 N   0  0  0  0  0  0  0  0  0  0  0  0
   24.5410   20.0320   21.9540 C   0  0  0  0  0  0  0  0  0  0  0  0
   25.3600   21.1080   21.2820 C   0  0  0  0  0  0  0  0  0  0  0  0
   26.3280   20.7910   20.3280 C   0  0  0  0  0  0  0  0  0  0  0  0
   27.0070   21.8180   19.7050 C   0  0  0  0  0  0  0  0  0  0  0  0
   27.9480   21.7490   18.7000 O   0  0  0  0  0  0  0  0  0  0  0  0
   28.0860   23.0910   18.2370 C   0  0  0  0  0  0  0  0  0  0  0  0
   27.5480   23.9450   19.2430 O   0  0  0  0  0  0  0  0  0  0  0  0
   26.7640   23.1250   20.0210 C   0  0  0  0  0  0  0  0  0  0  0  0
   25.8300   23.4690   20.9740 C   0  0  0  0  0  0  0  0  0  0  0  0
   25.1270   22.4480   21.5910 C   0  0  0  0  0  0  0  0  0  0  0  0
  5  4  1  0
  4  2  1  0
  3  2  2  0
  2  1  2  0
  6  2  1  0
  7  6  1  0
  8  7  1  0
  8 16  2  0
 16 15  1  0
 15 14  2  0
 14 13  1  0
 13 12  1  0
 12 11  1  0
 11 10  1  0
 14 10  1  0
 10  9  2  0
  9  8  1  0
M  END
