A71EV2A-x0497_A_147_A71EV2A-x0395+A+148+1
     RDKit          3D

 11 12  0  0  0  0  0  0  0  0999 V2000
   18.6260   -4.9280   19.0910 N   0  0  0  0  0  0  0  0  0  0  0  0
   18.6540   -5.5960   18.1580 C   0  0  0  0  0  0  0  0  0  0  0  0
   18.6940   -6.3980   16.9480 C   0  0  0  0  0  0  0  0  0  0  0  0
   19.6750   -6.4160   15.8990 C   0  0  0  0  0  0  0  0  0  0  0  0
   19.1340   -7.2610   14.9130 C   0  0  0  0  0  0  0  0  0  0  0  0
   17.9410   -7.7040   15.3960 N   0  0  0  0  0  0  0  0  0  0  0  0
   17.6610   -7.1870   16.6380 N   0  0  0  0  0  0  0  0  0  0  0  0
   20.9080   -5.8130   15.6610 C   0  0  0  0  0  0  0  0  0  0  0  0
   21.5610   -6.0350   14.4530 C   0  0  0  0  0  0  0  0  0  0  0  0
   21.0020   -6.8600   13.4830 C   0  0  0  0  0  0  0  0  0  0  0  0
   19.7850   -7.4880   13.7040 C   0  0  0  0  0  0  0  0  0  0  0  0
  2  1  3  0
  3  2  1  0
  3  7  2  0
  7  6  1  0
  6  5  1  0
  5 11  2  0
 11 10  1  0
 10  9  2  0
  9  8  1  0
  8  4  2  0
  4  3  1  0
  5  4  1  0
M  END
