A71EV2A-x0354_A_147_A71EV2A-x0541+A+147+1
     RDKit          3D

 14 15  0  0  0  0  0  0  0  0999 V2000
    2.8750   13.2320    2.5300 O   0  0  0  0  0  0  0  0  0  0  0  0
    3.2710   14.3710    2.4330 C   0  0  0  0  0  0  0  0  0  0  0  0
    2.2940   15.5900    2.5700 C   0  0  0  0  0  0  0  0  0  0  0  0
    2.7760   16.9590    2.1020 C   0  0  0  0  0  0  0  0  0  0  0  0
    2.6430   16.6890    3.5690 C   0  0  0  0  0  0  0  0  0  0  0  0
    4.5440   14.6300    2.1860 N   0  0  0  0  0  0  0  0  0  0  0  0
    5.6940   13.8920    2.7110 C   0  0  2  0  0  0  0  0  0  0  0  0
    6.3490   13.1400    1.5660 C   0  0  0  0  0  0  0  0  0  0  0  0
    5.4930   12.9690    3.9250 C   0  0  0  0  0  0  0  0  0  0  0  0
    6.9710   13.1730    4.8560 S   0  0  0  0  0  0  0  0  0  0  0  0
    6.5940   13.8640    6.0200 O   0  0  0  0  0  0  0  0  0  0  0  0
    7.7450   11.9890    4.9220 O   0  0  0  0  0  0  0  0  0  0  0  0
    7.6810   14.2230    3.8580 C   0  0  0  0  0  0  0  0  0  0  0  0
    6.5610   15.0200    3.2020 C   0  0  0  0  0  0  0  0  0  0  0  0
  7  8  1  6
  7 14  1  0
 14 13  1  0
 13 10  1  0
 11 10  2  0
 12 10  2  0
 10  9  1  0
  9  7  1  0
  7  6  1  0
  6  2  1  0
  2  1  2  0
  3  2  1  0
  3  5  1  0
  5  4  1  0
  4  3  1  0
M  END
