A71EV2A-x0269_A_147_A71EV2A-x0395+A+148+1
     RDKit          3D

 15 16  0  0  0  0  0  0  0  0999 V2000
   18.9160   -2.8190   18.4250 O   0  0  0  0  0  0  0  0  0  0  0  0
   18.0660   -3.6140   18.7520 C   0  0  0  0  0  0  0  0  0  0  0  0
   16.9170   -4.0080   17.8780 C   0  0  0  0  0  0  0  0  0  0  0  0
   15.8510   -3.3010   17.3140 C   0  0  0  0  0  0  0  0  0  0  0  0
   14.8230   -3.9610   16.6990 C   0  0  0  0  0  0  0  0  0  0  0  0
   14.8200   -5.2840   16.6340 C   0  0  0  0  0  0  0  0  0  0  0  0
   15.8290   -5.9900   17.1390 C   0  0  0  0  0  0  0  0  0  0  0  0
   16.8870   -5.3780   17.7610 C   0  0  0  0  0  0  0  0  0  0  0  0
   17.8300   -3.9730   19.9900 N   0  0  0  0  0  0  0  0  0  0  0  0
   18.8410   -4.4350   20.8610 C   0  0  1  0  0  0  0  0  0  0  0  0
   19.6350   -3.1700   21.0060 C   0  0  0  0  0  0  0  0  0  0  0  0
   19.6890   -2.6930   22.3770 N   0  0  0  0  0  0  0  0  0  0  0  0
   20.2240   -3.7120   23.2090 C   0  0  0  0  0  0  0  0  0  0  0  0
   19.2260   -4.9200   23.2530 C   0  0  0  0  0  0  0  0  0  0  0  0
   18.1620   -4.7670   22.1690 C   0  0  0  0  0  0  0  0  0  0  0  0
  2  1  2  0
  9  2  1  0
 10  9  1  6
 10 15  1  0
 15 14  1  0
 14 13  1  0
 13 12  1  0
 12 11  1  0
 11 10  1  0
  3  2  1  0
  3  8  2  0
  8  7  1  0
  7  6  2  0
  6  5  1  0
  5  4  2  0
  4  3  1  0
M  END
