A71EV2A-x0351_A_201_A71EV2A-x0432+A+147+1
     RDKit          3D

 16 17  0  0  0  0  0  0  0  0999 V2000
   -1.1630   -6.0260   17.5620 O   0  0  0  0  0  0  0  0  0  0  0  0
   -0.9400   -5.9220   18.9720 S   0  0  0  0  0  0  0  0  0  0  0  0
   -1.2730   -4.7050   19.6470 O   0  0  0  0  0  0  0  0  0  0  0  0
   -1.8220   -7.2410   19.7720 C   0  0  0  0  0  0  0  0  0  0  0  0
   -1.7440   -8.5360   18.9960 C   0  0  0  0  0  0  0  0  0  0  0  0
    0.6670   -6.1820   19.2150 N   0  0  0  0  0  0  0  0  0  0  0  0
    1.6860   -5.2940   18.6340 C   0  0  0  0  0  0  0  0  0  0  0  0
    2.1480   -5.7040   17.2540 C   0  0  0  0  0  0  0  0  0  0  0  0
    2.5620   -7.0110   17.0110 C   0  0  0  0  0  0  0  0  0  0  0  0
    3.0210   -7.3310   15.7510 C   0  0  0  0  0  0  0  0  0  0  0  0
    3.6210   -8.4920   15.3280 O   0  0  0  0  0  0  0  0  0  0  0  0
    3.6300   -8.3880   13.9060 C   0  0  0  0  0  0  0  0  0  0  0  0
    3.4320   -7.0110   13.5620 O   0  0  0  0  0  0  0  0  0  0  0  0
    3.0270   -6.4100   14.7320 C   0  0  0  0  0  0  0  0  0  0  0  0
    2.6230   -5.1100   14.9400 C   0  0  0  0  0  0  0  0  0  0  0  0
    2.1920   -4.7710   16.2140 C   0  0  0  0  0  0  0  0  0  0  0  0
  5  4  1  0
  4  2  1  0
  3  2  2  0
  2  1  2  0
  6  2  1  0
  7  6  1  0
  8  7  1  0
  8 16  2  0
 16 15  1  0
 15 14  2  0
 14 13  1  0
 13 12  1  0
 12 11  1  0
 11 10  1  0
 14 10  1  0
 10  9  2  0
  9  8  1  0
M  END
