A71EV2A-x0305_A_147_A71EV2A-x0541+A+147+1
     RDKit          3D

 13 13  0  0  0  0  0  0  0  0999 V2000
    7.9800   15.0170    2.5430 F   0  0  0  0  0  0  0  0  0  0  0  0
    7.9770   13.7070    2.8700 C   0  0  0  0  0  0  0  0  0  0  0  0
    8.3730   12.7150    1.9060 C   0  0  0  0  0  0  0  0  0  0  0  0
    9.2600   13.0170    0.7380 C   0  0  0  0  0  0  0  0  0  0  0  0
    8.0800   11.4270    2.2310 C   0  0  0  0  0  0  0  0  0  0  0  0
    7.4810   11.1250    3.4180 C   0  0  0  0  0  0  0  0  0  0  0  0
    7.1540   12.1090    4.3830 C   0  0  0  0  0  0  0  0  0  0  0  0
    7.4080   13.3990    4.0820 C   0  0  0  0  0  0  0  0  0  0  0  0
    6.9680   14.6560    5.1790 S   0  0  0  0  0  0  0  0  0  0  0  0
    8.0190   15.5780    5.0960 O   0  0  0  0  0  0  0  0  0  0  0  0
    6.4670   14.3000    6.4470 O   0  0  0  0  0  0  0  0  0  0  0  0
    5.6850   15.3440    4.4540 N   0  0  0  0  0  0  0  0  0  0  0  0
    5.5170   16.7890    4.4100 C   0  0  0  0  0  0  0  0  0  0  0  0
 13 12  1  0
 12  9  1  0
 10  9  2  0
 11  9  2  0
  9  8  1  0
  8  7  2  0
  7  6  1  0
  6  5  2  0
  5  3  1  0
  4  3  1  0
  3  2  2  0
  8  2  1  0
  2  1  1  0
M  END
