A71EV2A-x0237_A_151_A71EV2A-x0501+A+152+1
     RDKit          3D

 15 16  0  0  0  0  0  0  0  0999 V2000
   34.0090   11.3970    2.1910 O   0  0  0  0  0  0  0  0  0  0  0  0
   34.5410   10.4430    2.7560 C   0  0  0  0  0  0  0  0  0  0  0  0
   34.3260    9.0230    2.3050 C   0  0  0  0  0  0  0  0  0  0  0  0
   33.3970    8.8060    1.1120 C   0  0  0  0  0  0  0  0  0  0  0  0
   34.6080    8.3040    0.2860 C   0  0  0  0  0  0  0  0  0  0  0  0
   35.4820    8.3310    1.5680 C   0  0  0  0  0  0  0  0  0  0  0  0
   35.3240   10.5920    3.8210 N   0  0  0  0  0  0  0  0  0  0  0  0
   34.9010   11.3400    4.9900 C   0  0  0  0  0  0  0  0  0  0  0  0
   33.7560   10.7040    5.7430 C   0  0  0  0  0  0  0  0  0  0  0  0
   32.6960   11.4630    6.1940 C   0  0  0  0  0  0  0  0  0  0  0  0
   31.7630   10.9180    7.0490 C   0  0  0  0  0  0  0  0  0  0  0  0
   33.7960    9.3840    6.1550 C   0  0  0  0  0  0  0  0  0  0  0  0
   32.9140    8.8310    7.0060 N   0  0  0  0  0  0  0  0  0  0  0  0
   31.9030    9.5950    7.4610 C   0  0  0  0  0  0  0  0  0  0  0  0
   30.9420    8.9770    8.4310 C   0  0  0  0  0  0  0  0  0  0  0  0
 15 14  1  0
 14 11  1  0
 11 10  2  0
 10  9  1  0
  9  8  1  0
  8  7  1  0
  7  2  1  0
  2  1  2  0
  3  2  1  0
  3  6  1  0
  6  5  1  0
  5  4  1  0
  4  3  1  0
 12  9  2  0
 13 12  1  0
 14 13  2  0
M  END
