A71EV2A-x0586_A_147_A71EV2A-x0541+A+147+1
     RDKit          3D

 15 16  0  0  0  0  0  0  0  0999 V2000
    6.6810   14.1750    6.4830 O   0  0  0  0  0  0  0  0  0  0  0  0
    6.8060   14.7440    5.1730 S   0  0  0  0  0  0  0  0  0  0  0  0
    7.7030   15.8450    4.9780 O   0  0  0  0  0  0  0  0  0  0  0  0
    5.3480   15.2440    4.7280 N   0  0  0  0  0  0  0  0  0  0  0  0
    7.3170   13.4510    4.0860 C   0  0  0  0  0  0  0  0  0  0  0  0
    7.1660   12.1270    4.4620 C   0  0  0  0  0  0  0  0  0  0  0  0
    7.4780   11.1290    3.5570 C   0  0  0  0  0  0  0  0  0  0  0  0
    7.8010   13.7850    2.8300 C   0  0  0  0  0  0  0  0  0  0  0  0
    8.1150   12.7750    1.9280 C   0  0  0  0  0  0  0  0  0  0  0  0
    8.5570   13.1270    0.6760 N   0  0  0  0  0  0  0  0  0  0  0  0
    9.8720   13.7430    0.5400 C   0  0  0  0  0  0  0  0  0  0  0  0
    7.9520   11.4310    2.2830 C   0  0  0  0  0  0  0  0  0  0  0  0
    8.2860   10.3470    1.2880 C   0  0  0  0  0  0  0  0  0  0  0  0
    8.4550   10.8130   -0.1640 C   0  0  0  0  0  0  0  0  0  0  0  0
    8.1380   12.2750   -0.4270 C   0  0  0  0  0  0  0  0  0  0  0  0
 11 10  1  0
 10 15  1  0
 15 14  1  0
 14 13  1  0
 13 12  1  0
 12  7  2  0
  7  6  1  0
  6  5  2  0
  8  5  1  0
  9  8  2  0
 10  9  1  0
 12  9  1  0
  5  2  1  0
  3  2  2  0
  2  1  2  0
  4  2  1  0
M  END
