A71EV2A-x0375_A_147_A71EV2A-x0395+A+148+1
     RDKit          3D

 12 12  0  0  0  0  0  0  0  0999 V2000
   18.0270   -4.9550   10.7450 S   0  0  0  0  0  0  0  0  0  0  0  0
   17.5510   -6.5720   10.6160 C   0  0  0  0  0  0  0  0  0  0  0  0
   18.3020   -7.5880   11.0390 N   0  0  0  0  0  0  0  0  0  0  0  0
   16.3690   -6.8700   10.0580 N   0  0  0  0  0  0  0  0  0  0  0  0
   15.8250   -8.1500    9.8460 C   0  0  0  0  0  0  0  0  0  0  0  0
   14.6070   -8.4550   10.4630 C   0  0  0  0  0  0  0  0  0  0  0  0
   14.1480   -7.5050   11.3340 O   0  0  0  0  0  0  0  0  0  0  0  0
   12.7950   -7.6090   11.7820 C   0  0  0  0  0  0  0  0  0  0  0  0
   16.4080   -9.0790    8.9870 C   0  0  0  0  0  0  0  0  0  0  0  0
   15.7630  -10.2790    8.7300 C   0  0  0  0  0  0  0  0  0  0  0  0
   14.5490  -10.5580    9.3200 C   0  0  0  0  0  0  0  0  0  0  0  0
   13.9670   -9.6520   10.1930 C   0  0  0  0  0  0  0  0  0  0  0  0
  8  7  1  0
  7  6  1  0
  6 12  2  0
 12 11  1  0
 11 10  2  0
 10  9  1  0
  9  5  2  0
  6  5  1  0
  5  4  1  0
  4  2  1  0
  2  1  2  0
  3  2  1  0
M  END
