A71EV2A-x0517_A_147_A71EV2A-x0528+A+201+1
     RDKit          3D

 18 19  0  0  0  0  0  0  0  0999 V2000
   30.1170    7.1750   17.8550 F   0  0  0  0  0  0  0  0  0  0  0  0
   30.2810    8.3080   17.1310 C   0  0  0  0  0  0  0  0  0  0  0  0
   29.8910    9.4990   17.6760 C   0  0  0  0  0  0  0  0  0  0  0  0
   30.0900   10.6510   16.9400 C   0  0  0  0  0  0  0  0  0  0  0  0
   30.8350    8.2100   15.8980 C   0  0  0  0  0  0  0  0  0  0  0  0
   31.0360    9.3620   15.1790 C   0  0  0  0  0  0  0  0  0  0  0  0
   30.6770   10.5990   15.6940 C   0  0  0  0  0  0  0  0  0  0  0  0
   30.8750   11.8590   14.9060 C   0  0  0  0  0  0  0  0  0  0  0  0
   32.0090   11.8830   14.0000 N   0  0  0  0  0  0  0  0  0  0  0  0
   33.2410   12.0180   14.4620 C   0  0  0  0  0  0  0  0  0  0  0  0
   33.4640   12.1340   15.6270 O   0  0  0  0  0  0  0  0  0  0  0  0
   34.3430   11.9870   13.4660 C   0  0  0  0  0  0  0  0  0  0  0  0
   34.2420   11.8530   12.1020 C   0  0  0  0  0  0  0  0  0  0  0  0
   35.7150   11.9970   13.7010 C   0  0  0  0  0  0  0  0  0  0  0  0
   36.3990   11.8480   12.6110 N   0  0  0  0  0  0  0  0  0  0  0  0
   35.4730   11.7860   11.6350 N   0  0  0  0  0  0  0  0  0  0  0  0
   35.8950   11.8000   10.2360 C   0  0  0  0  0  0  0  0  0  0  0  0
   35.3010   10.7040    9.4260 C   0  0  0  0  0  0  0  0  0  0  0  0
 18 17  1  0
 17 16  1  0
 16 13  1  0
 13 12  2  0
 14 12  1  0
 15 14  2  0
 16 15  1  0
 12 10  1  0
 11 10  2  0
 10  9  1  0
  9  8  1  0
  8  7  1  0
  7  4  2  0
  4  3  1  0
  3  2  2  0
  2  1  1  0
  5  2  1  0
  6  5  2  0
  7  6  1  0
M  END
