A71EV2A-x0451_A_201_A71EV2A-x0501+A+152+1
     RDKit          3D

 14 15  0  0  0  0  0  0  0  0999 V2000
   30.3880   13.8060    6.5000 O   0  0  0  0  0  0  0  0  0  0  0  0
   30.1300   13.0140    7.3890 C   0  0  0  0  0  0  0  0  0  0  0  0
   29.1690   13.2310    8.2810 N   0  0  0  0  0  0  0  0  0  0  0  0
   28.9900   14.5200    8.9230 C   0  0  0  0  0  0  0  0  0  0  0  0
   30.8540   11.7230    7.4940 C   0  0  0  0  0  0  0  0  0  0  0  0
   31.9990   11.2760    6.7290 C   0  0  0  0  0  0  0  0  0  0  0  0
   32.3050    9.9840    7.1830 C   0  0  0  0  0  0  0  0  0  0  0  0
   31.4060    9.6600    8.1760 N   0  0  0  0  0  0  0  0  0  0  0  0
   31.3880    8.4170    8.9330 C   0  0  0  0  0  0  0  0  0  0  0  0
   30.5430   10.7030    8.3450 C   0  0  0  0  0  0  0  0  0  0  0  0
   32.7830   11.8360    5.7220 C   0  0  0  0  0  0  0  0  0  0  0  0
   33.8440   11.1130    5.1940 C   0  0  0  0  0  0  0  0  0  0  0  0
   34.1250    9.8330    5.6490 C   0  0  0  0  0  0  0  0  0  0  0  0
   33.3570    9.2500    6.6480 C   0  0  0  0  0  0  0  0  0  0  0  0
  4  3  1  0
  3  2  1  0
  2  1  2  0
  5  2  1  0
  5 10  2  0
 10  8  1  0
  9  8  1  0
  8  7  1  0
  7 14  2  0
 14 13  1  0
 13 12  2  0
 12 11  1  0
 11  6  2  0
  6  5  1  0
  7  6  1  0
M  END
