A71EV2A-x0691_A_201_A71EV2A-x0541+A+147+1
     RDKit          3D

 12 12  0  0  0  0  0  0  0  0999 V2000
    7.7910   10.7360    2.6590 O   0  0  0  0  0  0  0  0  0  0  0  0
    7.9920   12.0890    2.2190 S   0  0  0  0  0  0  0  0  0  0  0  0
    9.2640   12.5150    1.7040 O   0  0  0  0  0  0  0  0  0  0  0  0
    6.7640   12.4340    1.0280 C   0  0  0  0  0  0  0  0  0  0  0  0
    7.6030   13.1140    3.5790 C   0  0  0  0  0  0  0  0  0  0  0  0
    7.7520   14.4610    3.5630 C   0  0  0  0  0  0  0  0  0  0  0  0
    8.6420   14.9590    2.7320 N   0  0  0  0  0  0  0  0  0  0  0  0
    9.5910   15.9470    3.1610 C   0  0  0  0  0  0  0  0  0  0  0  0
    7.1270   12.4720    4.6910 C   0  0  0  0  0  0  0  0  0  0  0  0
    6.5680   13.2110    5.6500 C   0  0  0  0  0  0  0  0  0  0  0  0
    6.5200   14.5540    5.5450 C   0  0  0  0  0  0  0  0  0  0  0  0
    7.2090   15.1940    4.5750 C   0  0  0  0  0  0  0  0  0  0  0  0
  8  7  1  0
  7  6  1  0
  6 12  2  0
 12 11  1  0
 11 10  2  0
 10  9  1  0
  9  5  2  0
  6  5  1  0
  5  2  1  0
  3  2  2  0
  2  1  2  0
  4  2  1  0
M  END
