A71EV2A-x0514_B_151_A71EV2A-x0501+A+152+1
     RDKit          3D

 12 13  0  0  0  0  0  0  0  0999 V2000
   35.4100   13.6400    3.4970 N   0  0  0  0  0  0  0  0  0  0  0  0
   34.8180   12.6630    4.1970 C   0  0  0  0  0  0  0  0  0  0  0  0
   35.4600   11.0270    4.1390 S   0  0  0  0  0  0  0  0  0  0  0  0
   33.7880   12.8400    4.9840 N   0  0  0  0  0  0  0  0  0  0  0  0
   33.4440   11.6450    5.6210 C   0  0  0  0  0  0  0  0  0  0  0  0
   34.2480   10.5480    5.2860 C   0  0  0  0  0  0  0  0  0  0  0  0
   34.0320    9.2980    5.8480 C   0  0  0  0  0  0  0  0  0  0  0  0
   32.9990    9.1380    6.7520 C   0  0  0  0  0  0  0  0  0  0  0  0
   32.4080   11.4790    6.5410 C   0  0  0  0  0  0  0  0  0  0  0  0
   32.2070   10.2240    7.1050 C   0  0  0  0  0  0  0  0  0  0  0  0
   31.2330   10.1590    8.0710 O   0  0  0  0  0  0  0  0  0  0  0  0
   30.9580    8.8960    8.6830 C   0  0  0  0  0  0  0  0  0  0  0  0
 12 11  1  0
 11 10  1  0
 10  8  2  0
  8  7  1  0
  7  6  2  0
  6  3  1  0
  3  2  1  0
  2  1  1  0
  4  2  2  0
  5  4  1  0
  6  5  1  0
  9  5  2  0
 10  9  1  0
M  END
