A71EV2A-x0375_A_201_A71EV2A-x0501+A+152+1
     RDKit          3D

 12 12  0  0  0  0  0  0  0  0999 V2000
   36.7390    6.7640    5.7110 S   0  0  0  0  0  0  0  0  0  0  0  0
   36.5110    7.8290    4.4110 C   0  0  0  0  0  0  0  0  0  0  0  0
   37.5200    8.3570    3.7400 N   0  0  0  0  0  0  0  0  0  0  0  0
   35.2690    8.2300    4.0780 N   0  0  0  0  0  0  0  0  0  0  0  0
   34.8360    9.2410    3.1810 C   0  0  0  0  0  0  0  0  0  0  0  0
   34.6580    8.9190    1.8200 C   0  0  0  0  0  0  0  0  0  0  0  0
   35.0950    7.6770    1.4600 O   0  0  0  0  0  0  0  0  0  0  0  0
   36.3220    7.5990    0.7380 C   0  0  0  0  0  0  0  0  0  0  0  0
   34.5130   10.5240    3.6170 C   0  0  0  0  0  0  0  0  0  0  0  0
   33.9850   11.4450    2.7280 C   0  0  0  0  0  0  0  0  0  0  0  0
   33.7910   11.1100    1.4030 C   0  0  0  0  0  0  0  0  0  0  0  0
   34.1300    9.8490    0.9390 C   0  0  0  0  0  0  0  0  0  0  0  0
  8  7  1  0
  7  6  1  0
  6 12  2  0
 12 11  1  0
 11 10  2  0
 10  9  1  0
  9  5  2  0
  6  5  1  0
  5  4  1  0
  4  2  1  0
  2  1  2  0
  3  2  1  0
M  END
