A71EV2A-x0501_A_152_A71EV2A-x0501+A+152+1
     RDKit          3D

 13 14  0  0  0  0  0  0  0  0999 V2000
   30.1060    8.7200    8.9370 C   0  0  0  0  0  0  0  0  0  0  0  0
   30.2330   10.1270    8.7660 O   0  0  0  0  0  0  0  0  0  0  0  0
   31.0990   10.6030    7.8120 C   0  0  0  0  0  0  0  0  0  0  0  0
   31.1400   11.9960    7.6920 C   0  0  0  0  0  0  0  0  0  0  0  0
   32.0110   12.5700    6.7640 C   0  0  0  0  0  0  0  0  0  0  0  0
   32.8160   11.7750    5.9730 C   0  0  0  0  0  0  0  0  0  0  0  0
   32.7760   10.4040    6.1030 C   0  0  0  0  0  0  0  0  0  0  0  0
   31.9280    9.8120    7.0290 C   0  0  0  0  0  0  0  0  0  0  0  0
   30.3550   12.8820    8.5410 C   0  0  0  0  0  0  0  0  0  0  0  0
   29.0380   12.5940    8.7570 O   0  0  0  0  0  0  0  0  0  0  0  0
   28.6160   13.5830    9.5850 C   0  0  0  0  0  0  0  0  0  0  0  0
   29.6280   14.4150    9.8450 N   0  0  0  0  0  0  0  0  0  0  0  0
   30.7370   13.9490    9.1630 N   0  0  0  0  0  0  0  0  0  0  0  0
  2  1  1  0
  3  2  1  0
  3  8  2  0
  8  7  1  0
  7  6  2  0
  6  5  1  0
  5  4  2  0
  4  3  1  0
  9  4  1  0
  9 13  2  0
 13 12  1  0
 12 11  2  0
 11 10  1  0
 10  9  1  0
M  END
