A71EV2A-x0566_A_147_A71EV2A-x0501+A+152+1
     RDKit          3D

 13 14  0  0  0  0  0  0  0  0999 V2000
   28.6360   13.0620    6.6530 O   0  0  0  0  0  0  0  0  0  0  0  0
   29.6230   13.1580    7.3830 C   0  0  0  0  0  0  0  0  0  0  0  0
   29.8210   14.2800    8.0630 N   0  0  0  0  0  0  0  0  0  0  0  0
   28.7180   15.1480    8.4260 C   0  0  0  0  0  0  0  0  0  0  0  0
   30.5390   11.9690    7.6640 C   0  0  0  0  0  0  0  0  0  0  0  0
   31.7030   11.6420    6.8960 C   0  0  0  0  0  0  0  0  0  0  0  0
   32.4890   12.4280    6.0860 N   0  0  0  0  0  0  0  0  0  0  0  0
   33.5250   11.6710    5.6150 C   0  0  0  0  0  0  0  0  0  0  0  0
   33.4260   10.4020    6.0820 C   0  0  0  0  0  0  0  0  0  0  0  0
   32.2820   10.3530    6.9260 C   0  0  0  0  0  0  0  0  0  0  0  0
   31.7240    9.3870    7.7600 C   0  0  0  0  0  0  0  0  0  0  0  0
   30.6550    9.7110    8.5690 C   0  0  0  0  0  0  0  0  0  0  0  0
   30.0770   10.9900    8.5390 C   0  0  0  0  0  0  0  0  0  0  0  0
  4  3  1  0
  3  2  1  0
  2  1  2  0
  5  2  1  0
  5 13  2  0
 13 12  1  0
 12 11  2  0
 11 10  1  0
 10  9  1  0
  9  8  2  0
  8  7  1  0
  7  6  1  0
  6  5  1  0
 10  6  2  0
M  END
