A71EV2A-x1068_A_201_A71EV2A-x1068+A+201+1
     RDKit          3D

  7  7  0  0  0  0  0  0  0  0999 V2000
    0.8930    8.1290    6.1890 N   0  0  0  0  0  0  0  0  0  0  0  0
    0.0950    7.1730    5.7280 C   0  0  0  0  0  0  0  0  0  0  0  0
    0.2410    5.9320    6.2420 N   0  0  0  0  0  0  0  0  0  0  0  0
   -0.5330    4.9710    5.7090 C   0  0  0  0  0  0  0  0  0  0  0  0
   -1.4340    5.2000    4.6950 C   0  0  0  0  0  0  0  0  0  0  0  0
   -1.5160    6.5010    4.2550 C   0  0  0  0  0  0  0  0  0  0  0  0
   -0.7710    7.5030    4.7460 N   0  0  0  0  0  0  0  0  0  0  0  0
  2  1  1  0
  2  7  2  0
  7  6  1  0
  6  5  2  0
  5  4  1  0
  4  3  2  0
  3  2  1  0
M  END
