A71EV2A-x0239_A_147_A71EV2A-x0486+A+147+1
     RDKit          3D

 15 16  0  0  0  0  0  0  0  0999 V2000
   20.0190   13.0400    2.3040 O   0  0  0  0  0  0  0  0  0  0  0  0
   19.9740   14.2200    2.3480 C   0  0  0  0  0  0  0  0  0  0  0  0
   18.6950   14.9740    2.0850 C   0  0  0  0  0  0  0  0  0  0  0  0
   18.6690   16.3170    2.4520 C   0  0  0  0  0  0  0  0  0  0  0  0
   21.0890   14.9280    2.5850 N   0  0  0  0  0  0  0  0  0  0  0  0
   22.2820   14.1560    2.8710 C   0  0  0  0  0  0  0  0  0  0  0  0
   22.8540   13.7180    1.5620 C   0  0  0  0  0  0  0  0  0  0  0  0
   23.9090   12.9180    1.3560 N   0  0  0  0  0  0  0  0  0  0  0  0
   23.8940   12.6590    0.0690 C   0  0  0  0  0  0  0  0  0  0  0  0
   22.9710   13.3080   -0.5480 N   0  0  0  0  0  0  0  0  0  0  0  0
   22.3150   14.0280    0.4010 N   0  0  0  0  0  0  0  0  0  0  0  0
   25.0490   12.5620    2.1910 C   0  0  0  0  0  0  0  0  0  0  0  0
   26.1030   11.8490    1.4290 C   0  0  0  0  0  0  0  0  0  0  0  0
   26.0810   12.2600    0.0250 C   0  0  0  0  0  0  0  0  0  0  0  0
   24.8720   11.7200   -0.4940 C   0  0  0  0  0  0  0  0  0  0  0  0
  4  3  1  0
  3  2  1  0
  2  1  2  0
  5  2  1  0
  6  5  1  0
  7  6  1  0
  7 11  2  0
 11 10  1  0
 10  9  2  0
  9 15  1  0
 15 14  1  0
 14 13  1  0
 13 12  1  0
 12  8  1  0
  8  7  1  0
  9  8  1  0
M  END
