A71EV2A-x1105_A_148_A71EV2A-x0395+A+148+1
     RDKit          3D

 12 13  0  0  0  0  0  0  0  0999 V2000
   19.2210   -3.1660   17.5220 C   0  0  0  0  0  0  0  0  0  0  0  0
   20.2610   -2.6600   18.2730 C   0  0  0  0  0  0  0  0  0  0  0  0
   20.5720   -3.0950   19.4970 N   0  0  0  0  0  0  0  0  0  0  0  0
   19.8260   -4.0910   19.9880 C   0  0  0  0  0  0  0  0  0  0  0  0
   18.7820   -4.6720   19.3000 C   0  0  0  0  0  0  0  0  0  0  0  0
   18.4380   -4.1860   18.0440 C   0  0  0  0  0  0  0  0  0  0  0  0
   17.1720   -4.6030   17.3770 C   0  0  0  0  0  0  0  0  0  0  0  0
   16.1880   -3.6660   17.0700 C   0  0  0  0  0  0  0  0  0  0  0  0
   14.9430   -4.0660   16.6050 C   0  0  0  0  0  0  0  0  0  0  0  0
   16.8800   -5.9510   17.1630 C   0  0  0  0  0  0  0  0  0  0  0  0
   15.6360   -6.3410   16.6880 C   0  0  0  0  0  0  0  0  0  0  0  0
   14.6650   -5.3990   16.4210 C   0  0  0  0  0  0  0  0  0  0  0  0
 12  9  1  0
  9  8  2  0
  8  7  1  0
 10  7  2  0
 11 10  1  0
 12 11  2  0
  7  6  1  0
  6  5  2  0
  5  4  1  0
  4  3  2  0
  3  2  1  0
  2  1  2  0
  6  1  1  0
M  END
