A71EV2A-x0473_A_147_A71EV2A-x0501+A+152+1
     RDKit          3D

 15 16  0  0  0  0  0  0  0  0999 V2000
   41.0810   12.3620   10.9020 O   0  0  0  0  0  0  0  0  0  0  0  0
   40.0040   13.1330   11.4040 S   0  0  0  0  0  0  0  0  0  0  0  0
   39.3140   13.9550   10.4480 O   0  0  0  0  0  0  0  0  0  0  0  0
   38.7330   12.0030   12.1750 C   0  0  0  0  0  0  0  0  0  0  0  0
   38.0640   11.2110   11.0530 C   0  0  0  0  0  0  0  0  0  0  0  0
   37.1260   10.1880   11.6240 C   0  0  0  0  0  0  0  0  0  0  0  0
   36.0650   10.7780   12.2290 O   0  0  0  0  0  0  0  0  0  0  0  0
   36.5380   11.6090   13.3210 C   0  0  0  0  0  0  0  0  0  0  0  0
   37.5200   12.6640   12.8390 C   0  0  0  0  0  0  0  0  0  0  0  0
   40.5510   14.0200   12.6300 N   0  0  0  0  0  0  0  0  0  0  0  0
   41.5130   13.5660   13.6500 C   0  0  0  0  0  0  0  0  0  0  0  0
   41.9420   14.6640   14.6140 C   0  0  0  0  0  0  0  0  0  0  0  0
   42.3840   13.9240   15.8620 C   0  0  0  0  0  0  0  0  0  0  0  0
   41.7390   12.5610   15.7850 C   0  0  0  0  0  0  0  0  0  0  0  0
   40.8860   12.5640   14.5260 C   0  0  0  0  0  0  0  0  0  0  0  0
  3  2  2  0
  2  1  2  0
 10  2  1  0
 11 10  1  0
 11 15  1  0
 15 14  1  0
 14 13  1  0
 13 12  1  0
 12 11  1  0
  4  2  1  0
  4  9  1  0
  9  8  1  0
  8  7  1  0
  7  6  1  0
  6  5  1  0
  5  4  1  0
M  END
