A71EV2A-x1081_A_147_A71EV2A-x0488+A+147+1
     RDKit          3D

  6  6  0  0  0  0  0  0  0  0999 V2000
   12.1790   -3.9180   34.4140 O   0  0  0  0  0  0  0  0  0  0  0  0
   11.8040   -4.7490   33.5880 C   0  0  0  0  0  0  0  0  0  0  0  0
   12.2260   -6.0140   33.5120 N   0  0  0  0  0  0  0  0  0  0  0  0
   11.6430   -6.7240   32.3780 C   0  0  0  0  0  0  0  0  0  0  0  0
   10.6390   -5.7280   31.8280 C   0  0  0  0  0  0  0  0  0  0  0  0
   10.9280   -4.5280   32.6060 N   0  0  0  0  0  0  0  0  0  0  0  0
  2  1  2  0
  2  6  1  0
  6  5  1  0
  5  4  1  0
  4  3  1  0
  3  2  1  0
M  END
